Version 4
SHEET 1 880 680
WIRE -96 -128 -96 -160
WIRE 32 -128 -96 -128
WIRE -96 -96 -96 -128
WIRE 32 -80 32 -128
WIRE -96 48 -96 -16
WIRE 176 48 -96 48
WIRE 256 48 256 -160
WIRE 176 64 112 64
WIRE 112 96 112 64
WIRE 512 128 368 128
WIRE -496 176 -496 -160
WIRE -352 176 -352 -160
WIRE 112 192 112 176
WIRE 176 192 112 192
WIRE 32 208 32 0
WIRE 176 208 32 208
WIRE 304 208 304 176
WIRE 352 208 304 208
WIRE 512 208 432 208
WIRE -96 240 -96 48
WIRE 32 240 32 208
WIRE 304 240 304 208
WIRE 256 352 256 208
WIRE 304 352 304 320
WIRE 304 352 256 352
WIRE -496 432 -496 256
WIRE -352 432 -352 256
WIRE -96 432 -96 320
WIRE 32 432 32 320
WIRE 304 432 304 352
FLAG -496 432 0
FLAG -496 -160 +5V
IOPIN -496 -160 Out
FLAG -352 432 0
FLAG -352 -160 REFB
IOPIN -352 -160 Out
FLAG -96 -160 REFB
IOPIN -96 -160 In
FLAG -96 432 0
FLAG 32 432 0
FLAG 304 432 0
FLAG 256 -160 +5V
IOPIN 256 -160 In
FLAG 512 128 UT_Out
IOPIN 512 128 Out
FLAG 512 208 REFB
IOPIN 512 208 In
SYMBOL ad623 192 128 R0
WINDOW 3 3 7 Left 2
WINDOW 0 3 -18 Left 2
SYMATTR InstName U1
SYMBOL Misc\\battery -496 160 R0
WINDOW 123 0 0 Left 0
WINDOW 39 0 0 Left 0
SYMATTR InstName V1
SYMATTR Value 5V
SYMBOL voltage -352 160 R0
WINDOW 123 0 0 Left 0
WINDOW 39 0 0 Left 0
SYMATTR InstName V2
SYMATTR Value 1.1V
SYMBOL res 16 -96 R0
SYMATTR InstName R1
SYMATTR Value {PT}
SYMBOL res -112 -112 R0
SYMATTR InstName R2
SYMATTR Value 1k
SYMBOL res -112 224 R0
SYMATTR InstName R3
SYMATTR Value 1k
SYMBOL res 16 224 R0
SYMATTR InstName R4
SYMATTR Value 1k
SYMBOL res 96 80 R0
SYMATTR InstName R5
SYMATTR Value 5000
SYMBOL res 288 224 R0
SYMATTR InstName R6
SYMATTR Value 1000
SYMBOL res 448 192 R90
WINDOW 0 0 56 VBottom 2
WINDOW 3 32 56 VTop 2
SYMATTR InstName R7
SYMATTR Value 5k
TEXT 384 -248 Left 2 !.param T = 0
TEXT 384 -216 Left 2 !.param PT = 1k * (1 + 3.85e-3*T)
TEXT 376 -184 Left 2 !.param G=(100k / 5000) +=1
TEXT 384 -152 Left 2 !.step param T -10 50 .5
TEXT 384 -120 Left 2 !.op
