Version 4
SHEET 1 880 680
SYMBOL res 80 48 R0
SYMATTR InstName R1
SYMBOL res 80 224 R0
SYMATTR InstName R2
SYMBOL res 176 224 R0
SYMATTR InstName R3
SYMBOL res 176 48 R0
SYMATTR InstName R4
SYMBOL res 256 128 R0
SYMATTR InstName R5
SYMBOL res 368 224 R0
SYMATTR InstName R6
SYMBOL res 560 176 R90
WINDOW 0 0 56 VBottom 2
WINDOW 3 32 56 VTop 2
SYMATTR InstName R7
